125

Ar1 2.2956077693150303	1.3253697635678523	0.9371779473984145
Ar2 2.3711409851358325	4.4430550483786915	3.1417143538936747
Ar3 0.29570561651140764	5.866229205117581	4.148050450933152
Ar4 -0.28436807333087916	6.021469836340996	4.257822153986921
Ar5 -1.5878255057096722	5.552456605958937	3.926179718317534
Ar6 5.033369034876469	-0.1680591951074198	3.141714353893725
Ar7 2.624094622066405	1.5150217364289469	7.434613647813229
Ar8 0.2806567562589318	2.888759626465606	8.597828944915191
Ar9 -1.0086751632645417	3.3882650422580984	8.67754731353076
Ar10 -4.12618798043368	3.9267941855880815	6.848298928622124
Ar11 5.22815632430984	-2.6770260266180097	4.1480504509332
Ar12 2.642067600075512	-1.2013239325688927	8.597828944915106
Ar13 0.22142248134440706	0.1278383292089043	9.781293573968838
Ar14 -1.2815089600940395	0.8905940428294086	9.80599021916642
Ar15 -4.638038322753915	2.6777726741537737	7.5738848654806805
Ar16 5.072561809727583	-3.257004893700223	4.25782215398692
Ar17 2.4299860197181986	-2.5676708366826198	8.677547313530747
Ar18 0.13052258550229204	-1.5551163360335185	9.805990219166421
Ar19 -1.347578193666911	-0.7780246328675757	9.78916740728698
Ar20 -4.662086510224854	1.1471184573059008	7.502893219132
Ar21 4.014655721316279	-4.151325527700867	3.9261797183175347
Ar22 1.337609529935544	-5.5367807046395825	6.848298928622073
Ar23 1.9644279692504485E-14	-5.35554534830756	7.573884865480644
Ar24 -1.3376095299355022	-4.6110445811484135	7.502893219131997
Ar25 -4.014655721316392	-2.3178625614056396	5.2226338148393525
Ar26 5.033369034876552	2.906016967216738	-1.2056858466327847
Ar27 2.624094622066219	7.5144282133040985	-1.0498283579724057
Ar28 0.28065675625900666	9.069030742730643	-0.1423942868492938
Ar29 -1.0086751632645627	9.31069174670582	0.3019711459406209
Ar30 -4.126187980433606	7.765569544557822	1.419450753063731
Ar31 7.819733038668909	-1.4846815020085269	-1.0498283579724066
Ar32 2.868676091454001	1.6562309136187132	1.171132110230608
Ar33 0.20475807523829195	3.179650053787535	2.248352114833388
Ar34 -2.1663361937113366	4.195409665255863	2.9666026241580536
Ar35 -7.094436255734522	5.652023947732062	3.9965844608701437
Ar36 7.994339389036084	-4.291459490701343	-0.1423942868493147
Ar37 2.8560367593439415	-1.412499332107384	2.2483521148333905
Ar38 0.10940919765936107	0.06316742972046235	3.3622300220273136
Ar39 -2.4906684848375207	1.437988120183095	4.067244604188646
Ar40 -7.622895361696278	4.25036618932949	4.734841148713178
Ar41 7.558957997820941	-5.528884188906345	0.30197114594056707
Ar42 2.5501632525386944	-3.9738070095197733	2.9666026241580936
Ar43 4.27437490783944E-14	-2.8759762403662044	4.06724460418862
Ar44 -2.5501632525388604	-1.4723374403307723	4.735408719463456
Ar45 -7.558957997820908	1.5582602696124552	5.313339051807835
Ar46 4.662086510225023	-7.456168384124308	1.4194507530637273
Ar47 1.3475781936667666	-8.969973996861356	3.996584460870178
Ar48 -0.1305225855022695	-8.726804128284181	4.734841148713248
Ar49 -2.4299860197181076	-7.325379787058692	5.313339051807852
Ar50 -5.072561809727682	-2.92864492632723	4.490007713586553
Ar51 5.2281563243098494	3.018477461205673	-3.906607826090452
Ar52 2.6420676000755017	7.705669556385637	-3.998562047133222
Ar53 0.22142248134440717	9.264504796309309	-3.1399040586840825
Ar54 -1.2815089600940601	9.542040921238506	-2.429003290430153
Ar55 -4.638038322753925	8.033318022461339	5.1428289795166227E-14
Ar56 7.994339389036083	-1.5647371180116096	-3.998562047133273
Ar57 2.8560367593439246	1.6489335918225998	-2.081167846483961
Ar58 0.10940919765933982	3.1909966745528444	-1.0611885168017794
Ar59 -2.4906684848375398	4.31396436054927	-3.3551639114573484E-14
Ar60 -7.622895361696298	5.880839775238091	2.4290032904301886
Ar61 8.134007747758867	-4.440494904341357	-3.13990405868408
Ar62 2.81818878238402	-1.5007471926957225	-1.06118851680182
Ar63 1.3270634591222574E-16	2.0586288750068515E-16	-5.408542537443939E-16
Ar64 -2.8181887823840217	1.5007471926957212	1.0611885168018216
Ar65 -8.134007747758861	4.440494904341352	3.139904058684079
Ar66 7.6228953616962976	-5.880839775238098	-2.4290032904301877
Ar67 2.4906684848375398	-4.3139643605492735	3.323039001086603E-14
Ar68 -0.10940919765934015	-3.1909966745528466	1.061188516801781
Ar69 -2.8560367593439246	-1.6489335918226016	2.0811678464839654
Ar70 -7.9943393890360825	1.5647371180116085	3.9985620471332712
Ar71 4.638038322753925	-8.03331802246134	-5.2253747119188065E-14
Ar72 1.2815089600940615	-9.542040921238495	2.4290032904301526
Ar73 -0.2214224813444073	-9.264504796309302	3.1399040586840816
Ar74 -2.642067600075502	-7.70566955638564	3.998562047133223
Ar75 -5.22815632430985	-3.0184774612056744	3.9066078260904504
Ar76 5.07256180972768	2.9286449263272303	-4.490007713586551
Ar77 2.429986019718108	7.325379787058691	-5.313339051807852
Ar78 0.1305225855022693	8.726804128284181	-4.734841148713246
Ar79 -1.3475781936667657	8.969973996861354	-3.9965844608701775
Ar80 -4.66208651022502	7.456168384124306	-1.419450753063728
Ar81 7.558957997820909	-1.5582602696124572	-5.313339051807833
Ar82 2.5501632525388604	1.4723374403307705	-4.735408719463449
Ar83 -4.280804226722279E-14	2.8759762403662035	-4.067244604188612
Ar84 -2.5501632525386952	3.9738070095197733	-2.9666026241580896
Ar85 -7.558957997820938	5.528884188906343	-0.30197114594056756
Ar86 7.6228953616962745	-4.250366189329493	-4.734841148713174
Ar87 2.49066848483752	-1.4379881201830969	-4.0672446041886445
Ar88 -0.10940919765936123	-0.06316742972046167	-3.362230022027315
Ar89 -2.8560367593439424	1.4124993321073824	-2.2483521148333887
Ar90 -7.994339389036084	4.29145949070134	0.1423942868493166
Ar91 7.094436255734521	-5.652023947732067	-3.9965844608701433
Ar92 2.1663361937113366	-4.1954096652558635	-2.966602624158056
Ar93 -0.20475807523829143	-3.1796500537875363	-2.2483521148333905
Ar94 -2.868676091454003	-1.6562309136187146	-1.1711321102306074
Ar95 -7.819733038668901	1.484681502008526	1.0498283579724053
Ar96 4.126187980433604	-7.765569544557834	-1.4194507530637306
Ar97 1.008675163264564	-9.310691746705809	-0.30197114594062097
Ar98 -0.2806567562590066	-9.069030742730636	0.14239428684929412
Ar99 -2.624094622066219	-7.514428213304103	1.049828357972403
Ar100 -5.03336903487655	-2.9060169672167397	1.2056858466327847
Ar101 4.01465572131639	2.31786256140564	-5.222633814839351
Ar102 1.3376095299355026	4.6110445811484135	-7.502893219131994
Ar103 -1.9418223539541257E-14	5.35554534830756	-7.573884865480639
Ar104 -1.337609529935543	5.5367807046395825	-6.848298928622071
Ar105 -4.014655721316277	4.151325527700868	-3.9261797183175333
Ar106 4.662086510224853	-1.1471184573059017	-7.502893219131997
Ar107 1.3475781936669113	0.7780246328675751	-9.789167407286971
Ar108 -0.13052258550229187	1.5551163360335172	-9.80599021916641
Ar109 -2.429986019718198	2.5676708366826184	-8.677547313530738
Ar110 -5.072561809727579	3.2570048937002216	-4.257822153986918
Ar111 4.638038322753913	-2.6777726741537746	-7.573884865480673
Ar112 1.2815089600940406	-0.8905940428294103	-9.805990219166409
Ar113 -0.22142248134440698	-0.1278383292089042	-9.78129357396883
Ar114 -2.6420676000755123	1.2013239325688934	-8.597828944915099
Ar115 -5.228156324309837	2.677026026618009	-4.148050450933197
Ar116 4.126187980433677	-3.9267941855880824	-6.848298928622118
Ar117 1.0086751632645434	-3.388265042258101	-8.67754731353075
Ar118 -0.2806567562589322	-2.8887596264656077	-8.597828944915184
Ar119 -2.624094622066404	-1.5150217364289476	-7.434613647813221
Ar120 -5.033369034876464	0.16805919510741985	-3.1417143538937222
Ar121 1.5878255057096722	-5.552456605958946	-3.9261797183175333
Ar122 0.284368073330879	-6.0214698363410015	-4.257822153986918
Ar123 -0.29570561651140786	-5.866229205117587	-4.148050450933149
Ar124 -2.3711409851358316	-4.443055048378695	-3.141714353893673
Ar125 -2.2956077693150294	-1.3253697635678527	-0.9371779473984138
