125

Ar1 -1.52	-0.8775724091682311	-0.6205374015050718
Ar2 -1.1400000000000001	-0.8775724091682311	-0.6205374015050718
Ar3 -0.76	-0.8775724091682311	-0.6205374015050718
Ar4 -0.38	-0.8775724091682311	-0.6205374015050718
Ar5 0.0	-0.8775724091682311	-0.6205374015050718
Ar6 -1.33	-0.5484827557301444	-0.6205374015050718
Ar7 -0.9500000000000001	-0.5484827557301444	-0.6205374015050718
Ar8 -0.5700000000000001	-0.5484827557301444	-0.6205374015050718
Ar9 -0.19	-0.5484827557301444	-0.6205374015050718
Ar10 0.19000000000000006	-0.5484827557301444	-0.6205374015050718
Ar11 -1.1400000000000001	-0.21939310229205777	-0.6205374015050718
Ar12 -0.76	-0.21939310229205777	-0.6205374015050718
Ar13 -0.38	-0.21939310229205777	-0.6205374015050718
Ar14 0.0	-0.21939310229205777	-0.6205374015050718
Ar15 0.38	-0.21939310229205777	-0.6205374015050718
Ar16 -0.9500000000000001	0.10969655114602889	-0.6205374015050718
Ar17 -0.5700000000000001	0.10969655114602889	-0.6205374015050718
Ar18 -0.19	0.10969655114602889	-0.6205374015050718
Ar19 0.19000000000000006	0.10969655114602889	-0.6205374015050718
Ar20 0.57	0.10969655114602889	-0.6205374015050718
Ar21 -0.76	0.43878620458411555	-0.6205374015050718
Ar22 -0.38	0.43878620458411555	-0.6205374015050718
Ar23 0.0	0.43878620458411555	-0.6205374015050718
Ar24 0.38	0.43878620458411555	-0.6205374015050718
Ar25 0.7600000000000001	0.43878620458411555	-0.6205374015050718
Ar26 -1.33	-0.7678758580222023	-0.3102687007525359
Ar27 -0.95	-0.7678758580222023	-0.3102687007525359
Ar28 -0.5700000000000001	-0.7678758580222023	-0.3102687007525359
Ar29 -0.19	-0.7678758580222023	-0.3102687007525359
Ar30 0.19	-0.7678758580222023	-0.3102687007525359
Ar31 -1.14	-0.43878620458411555	-0.3102687007525359
Ar32 -0.76	-0.43878620458411555	-0.3102687007525359
Ar33 -0.38	-0.43878620458411555	-0.3102687007525359
Ar34 0.0	-0.43878620458411555	-0.3102687007525359
Ar35 0.38000000000000006	-0.43878620458411555	-0.3102687007525359
Ar36 -0.95	-0.10969655114602889	-0.3102687007525359
Ar37 -0.5700000000000001	-0.10969655114602889	-0.3102687007525359
Ar38 -0.19	-0.10969655114602889	-0.3102687007525359
Ar39 0.19	-0.10969655114602889	-0.3102687007525359
Ar40 0.5700000000000001	-0.10969655114602889	-0.3102687007525359
Ar41 -0.76	0.21939310229205777	-0.3102687007525359
Ar42 -0.38	0.21939310229205777	-0.3102687007525359
Ar43 0.0	0.21939310229205777	-0.3102687007525359
Ar44 0.38000000000000006	0.21939310229205777	-0.3102687007525359
Ar45 0.76	0.21939310229205777	-0.3102687007525359
Ar46 -0.5700000000000001	0.5484827557301444	-0.3102687007525359
Ar47 -0.19	0.5484827557301444	-0.3102687007525359
Ar48 0.19	0.5484827557301444	-0.3102687007525359
Ar49 0.5700000000000001	0.5484827557301444	-0.3102687007525359
Ar50 0.9500000000000002	0.5484827557301444	-0.3102687007525359
Ar51 -1.1400000000000001	-0.6581793068761733	0.0
Ar52 -0.76	-0.6581793068761733	0.0
Ar53 -0.38	-0.6581793068761733	0.0
Ar54 0.0	-0.6581793068761733	0.0
Ar55 0.38	-0.6581793068761733	0.0
Ar56 -0.95	-0.32908965343808666	0.0
Ar57 -0.5700000000000001	-0.32908965343808666	0.0
Ar58 -0.19	-0.32908965343808666	0.0
Ar59 0.19	-0.32908965343808666	0.0
Ar60 0.5700000000000001	-0.32908965343808666	0.0
Ar61 -0.76	0.0	0.0
Ar62 -0.38	0.0	0.0
Ar63 0.0	0.0	0.0
Ar64 0.38	0.0	0.0
Ar65 0.76	0.0	0.0
Ar66 -0.5700000000000001	0.32908965343808666	0.0
Ar67 -0.19	0.32908965343808666	0.0
Ar68 0.19	0.32908965343808666	0.0
Ar69 0.5700000000000001	0.32908965343808666	0.0
Ar70 0.95	0.32908965343808666	0.0
Ar71 -0.38	0.6581793068761733	0.0
Ar72 0.0	0.6581793068761733	0.0
Ar73 0.38	0.6581793068761733	0.0
Ar74 0.76	0.6581793068761733	0.0
Ar75 1.1400000000000001	0.6581793068761733	0.0
Ar76 -0.9500000000000002	-0.5484827557301444	0.3102687007525359
Ar77 -0.5700000000000001	-0.5484827557301444	0.3102687007525359
Ar78 -0.19	-0.5484827557301444	0.3102687007525359
Ar79 0.19	-0.5484827557301444	0.3102687007525359
Ar80 0.5700000000000001	-0.5484827557301444	0.3102687007525359
Ar81 -0.76	-0.21939310229205777	0.3102687007525359
Ar82 -0.38000000000000006	-0.21939310229205777	0.3102687007525359
Ar83 0.0	-0.21939310229205777	0.3102687007525359
Ar84 0.38	-0.21939310229205777	0.3102687007525359
Ar85 0.76	-0.21939310229205777	0.3102687007525359
Ar86 -0.5700000000000001	0.10969655114602889	0.3102687007525359
Ar87 -0.19	0.10969655114602889	0.3102687007525359
Ar88 0.19	0.10969655114602889	0.3102687007525359
Ar89 0.5700000000000001	0.10969655114602889	0.3102687007525359
Ar90 0.95	0.10969655114602889	0.3102687007525359
Ar91 -0.38000000000000006	0.43878620458411555	0.3102687007525359
Ar92 0.0	0.43878620458411555	0.3102687007525359
Ar93 0.38	0.43878620458411555	0.3102687007525359
Ar94 0.76	0.43878620458411555	0.3102687007525359
Ar95 1.14	0.43878620458411555	0.3102687007525359
Ar96 -0.19	0.7678758580222023	0.3102687007525359
Ar97 0.19	0.7678758580222023	0.3102687007525359
Ar98 0.5700000000000001	0.7678758580222023	0.3102687007525359
Ar99 0.95	0.7678758580222023	0.3102687007525359
Ar100 1.33	0.7678758580222023	0.3102687007525359
Ar101 -0.7600000000000001	-0.43878620458411555	0.6205374015050718
Ar102 -0.38	-0.43878620458411555	0.6205374015050718
Ar103 0.0	-0.43878620458411555	0.6205374015050718
Ar104 0.38	-0.43878620458411555	0.6205374015050718
Ar105 0.76	-0.43878620458411555	0.6205374015050718
Ar106 -0.57	-0.10969655114602889	0.6205374015050718
Ar107 -0.19000000000000006	-0.10969655114602889	0.6205374015050718
Ar108 0.19	-0.10969655114602889	0.6205374015050718
Ar109 0.5700000000000001	-0.10969655114602889	0.6205374015050718
Ar110 0.9500000000000001	-0.10969655114602889	0.6205374015050718
Ar111 -0.38	0.21939310229205777	0.6205374015050718
Ar112 0.0	0.21939310229205777	0.6205374015050718
Ar113 0.38	0.21939310229205777	0.6205374015050718
Ar114 0.76	0.21939310229205777	0.6205374015050718
Ar115 1.1400000000000001	0.21939310229205777	0.6205374015050718
Ar116 -0.19000000000000006	0.5484827557301444	0.6205374015050718
Ar117 0.19	0.5484827557301444	0.6205374015050718
Ar118 0.5700000000000001	0.5484827557301444	0.6205374015050718
Ar119 0.9500000000000001	0.5484827557301444	0.6205374015050718
Ar120 1.33	0.5484827557301444	0.6205374015050718
Ar121 0.0	0.8775724091682311	0.6205374015050718
Ar122 0.38	0.8775724091682311	0.6205374015050718
Ar123 0.76	0.8775724091682311	0.6205374015050718
Ar124 1.1400000000000001	0.8775724091682311	0.6205374015050718
Ar125 1.52	0.8775724091682311	0.6205374015050718
